In line no 3, Inserting x with type SINGLE_TYPE in symbol table.
In line no 4, Inserting i with type INT_TYPE in symbol table.
Parsing finished!!
============= INTERMEDIATE CODE===============
  0: start              -1
  1: ld_int              0
  2: store               0
  3: ld_int              1
  4: store               1
  5: ld_var              0
  6: ld_var              1
  7: add                -1
  8: ld_int              1
  9: add                -1
 10: store               0
 11: ld_int              1
 12: store               1
 13: while_label        11
 14: ld_var              1
 15: ld_int             10
 16: lte                16
 17: while_start        11
 18: ld_var              0
 19: ld_int             10
 20: add                -1
 21: store               0
 22: print_int_value     1
 23: ld_var              1
 24: ld_int              1
 25: add                -1
 26: store               1
 27: while_end          11
 28: ld_var              0
 29: ld_int             30
 30: gt                 30
 31: if_start           28
 32: print_int_value     0
 33: else_start         28
 34: else_end           28
 35: halt               -1
============= ASM CODE===============

;start -1
.686
.model flat, c
include E:\masm32\include\msvcrt.inc
includelib E:\masm32\lib\msvcrt.lib

.stack 100h
printf PROTO arg1:Ptr Byte, printlist:VARARG
scanf PROTO arg2:Ptr Byte, inputlist:VARARG

.data
output_integer_msg_format byte "%d", 0Ah, 0
output_string_msg_format byte "%s", 0Ah, 0
input_integer_format byte "%d",0

number sdword ?

.code

main proc
	push ebp
	mov ebp, esp
	sub ebp, 100
	mov ebx, ebp
	add ebx, 4

;ld_int 0
	mov eax, 0
	mov dword ptr [ebx], eax
	add ebx, 4


;store 0
	mov eax, [ebx-4]
	mov dword ptr [ebp-0], eax

;ld_int 1
	mov eax, 1
	mov dword ptr [ebx], eax
	add ebx, 4


;store 1
	mov eax, [ebx-4]
	mov dword ptr [ebp-4], eax

;ld_var 0
	mov eax, [ebp-0]
	mov dword ptr [ebx], eax
	add ebx, 4


;ld_var 1
	mov eax, [ebp-4]
	mov dword ptr [ebx], eax
	add ebx, 4


;add -1
	sub ebx, 4
	mov eax, [ebx]
	sub ebx, 4
	mov edx, [ebx]
	add eax, edx
	mov dword ptr [ebx], eax
	add ebx, 4


;ld_int 1
	mov eax, 1
	mov dword ptr [ebx], eax
	add ebx, 4


;add -1
	sub ebx, 4
	mov eax, [ebx]
	sub ebx, 4
	mov edx, [ebx]
	add eax, edx
	mov dword ptr [ebx], eax
	add ebx, 4


;store 0
	mov eax, [ebx-4]
	mov dword ptr [ebp-0], eax

;ld_int 1
	mov eax, 1
	mov dword ptr [ebx], eax
	add ebx, 4


;store 1
	mov eax, [ebx-4]
	mov dword ptr [ebp-4], eax

;while_label 11
WHILE_START_LABEL_11:


;ld_var 1
	mov eax, [ebp-4]
	mov dword ptr [ebx], eax
	add ebx, 4


;ld_int 10
	mov eax, 10
	mov dword ptr [ebx], eax
	add ebx, 4


;lte 16
	sub ebx, 4
	mov eax, [ebx]
	sub ebx, 4
	mov edx, [ebx]
	cmp edx, eax
	jle LS16
	mov dword ptr [ebx], 0
	jmp LE16
	LS16: mov dword ptr [ebx], 1
	LE16: add ebx, 4



;while_start 11
	mov eax, [ebx-4]
	cmp eax, 0
	jle WHILE_END_LABEL_11


;ld_var 0
	mov eax, [ebp-0]
	mov dword ptr [ebx], eax
	add ebx, 4


;ld_int 10
	mov eax, 10
	mov dword ptr [ebx], eax
	add ebx, 4


;add -1
	sub ebx, 4
	mov eax, [ebx]
	sub ebx, 4
	mov edx, [ebx]
	add eax, edx
	mov dword ptr [ebx], eax
	add ebx, 4


;store 0
	mov eax, [ebx-4]
	mov dword ptr [ebp-0], eax

;print_int_value 1
	push eax
	push ebx
	push ecx
	push edx
	push [ebp-4]
	push [ebp-0]
	push [ebp+4]
	push [ebp+8]
	push [ebp+12]
	push [ebp+16]
	push [ebp+20]
	push [ebp+24]
	push [ebp+28]
	push ebp
	mov eax, [ebp-4]
	INVOKE printf, ADDR output_integer_msg_format, eax
	pop ebp
	pop [ebp+28]
	pop [ebp+24]
	pop [ebp+20]
	pop [ebp+16]
	pop [ebp+12]
	pop [ebp+8]
	pop [ebp+4]
	pop [ebp-0]
	pop [ebp-4]
	pop edx
	pop ecx
	pop ebx
	pop eax

;ld_var 1
	mov eax, [ebp-4]
	mov dword ptr [ebx], eax
	add ebx, 4


;ld_int 1
	mov eax, 1
	mov dword ptr [ebx], eax
	add ebx, 4


;add -1
	sub ebx, 4
	mov eax, [ebx]
	sub ebx, 4
	mov edx, [ebx]
	add eax, edx
	mov dword ptr [ebx], eax
	add ebx, 4


;store 1
	mov eax, [ebx-4]
	mov dword ptr [ebp-4], eax

;while_end 11
	jmp WHILE_START_LABEL_11
WHILE_END_LABEL_11:


;ld_var 0
	mov eax, [ebp-0]
	mov dword ptr [ebx], eax
	add ebx, 4


;ld_int 30
	mov eax, 30
	mov dword ptr [ebx], eax
	add ebx, 4


;gt 30
	sub ebx, 4
	mov eax, [ebx]
	sub ebx, 4
	mov edx, [ebx]
	cmp edx, eax
	jg LS30
	mov dword ptr [ebx], 0
	jmp LE30
	LS30: mov dword ptr [ebx], 1
	LE30: add ebx, 4



;if_start 28
	mov eax, [ebx-4]
	cmp eax, 0
	jle ELSE_START_LABEL_28


;print_int_value 0
	push eax
	push ebx
	push ecx
	push edx
	push [ebp-4]
	push [ebp-0]
	push [ebp+4]
	push [ebp+8]
	push [ebp+12]
	push [ebp+16]
	push [ebp+20]
	push [ebp+24]
	push [ebp+28]
	push [ebp+32]
	push [ebp+36]
	push [ebp+40]
	push ebp
	mov eax, [ebp-0]
	INVOKE printf, ADDR output_integer_msg_format, eax
	pop ebp
	pop [ebp+40]
	pop [ebp+36]
	pop [ebp+32]
	pop [ebp+28]
	pop [ebp+24]
	pop [ebp+20]
	pop [ebp+16]
	pop [ebp+12]
	pop [ebp+8]
	pop [ebp+4]
	pop [ebp-0]
	pop [ebp-4]
	pop edx
	pop ecx
	pop ebx
	pop eax

;else_start 28
	jmp ELSE_END_LABEL_28
ELSE_START_LABEL_28:


;else_end 28
ELSE_END_LABEL_28:


;halt -1
	add ebp, 100
	mov esp, ebp
	pop ebp
	ret
main endp
end
