In line no 1, Inserting a with type INT_TYPE in symbol table.
In line no 2, Inserting b with type INT_TYPE in symbol table.
In line no 3, Inserting c with type INT_TYPE in symbol table.
In line no 8, ID __TEMP__ is not declared.
In line no 8, Inserting __TEMP__ with type INT_TYPE in symbol table.
Parsing finished!!
============= INTERMEDIATE CODE===============
  0: start              -1
  1: scan_int_value      0
  2: scan_int_value      1
  3: ld_var              0
  4: ld_var              1
  5: add                -1
  6: store               3
  7: print_int_value     3
  8: halt               -1
============= ASM CODE===============

;start -1
.686
.model flat, c
include E:\masm32\include\msvcrt.inc
includelib E:\masm32\lib\msvcrt.lib

.stack 100h
printf PROTO arg1:Ptr Byte, printlist:VARARG
scanf PROTO arg2:Ptr Byte, inputlist:VARARG

.data
output_integer_msg_format byte "%d", 0Ah, 0
output_string_msg_format byte "%s", 0Ah, 0
input_integer_format byte "%d",0

number sdword ?

.code

main proc
	push ebp
	mov ebp, esp
	sub ebp, 100
	mov ebx, ebp
	add ebx, 4

;scan_int_value 0
	push eax
	push ebx
	push ecx
	push edx
	push [ebp-12]
	push [ebp-8]
	push [ebp-4]
	push [ebp-0]
	push ebp
	INVOKE scanf, ADDR input_integer_format, ADDR number
	pop ebp
	pop [ebp-0]
	pop [ebp-4]
	pop [ebp-8]
	pop [ebp-12]
	mov eax, number
	mov dword ptr [ebp-0], eax
	pop edx
	pop ecx
	pop ebx
	pop eax

;scan_int_value 1
	push eax
	push ebx
	push ecx
	push edx
	push [ebp-12]
	push [ebp-8]
	push [ebp-4]
	push [ebp-0]
	push ebp
	INVOKE scanf, ADDR input_integer_format, ADDR number
	pop ebp
	pop [ebp-0]
	pop [ebp-4]
	pop [ebp-8]
	pop [ebp-12]
	mov eax, number
	mov dword ptr [ebp-4], eax
	pop edx
	pop ecx
	pop ebx
	pop eax

;ld_var 0
	mov eax, [ebp-0]
	mov dword ptr [ebx], eax
	add ebx, 4


;ld_var 1
	mov eax, [ebp-4]
	mov dword ptr [ebx], eax
	add ebx, 4


;add -1
	sub ebx, 4
	mov eax, [ebx]
	sub ebx, 4
	mov edx, [ebx]
	add eax, edx
	mov dword ptr [ebx], eax
	add ebx, 4


;store 3
	mov eax, [ebx-4]
	mov dword ptr [ebp-12], eax

;print_int_value 3
	push eax
	push ebx
	push ecx
	push edx
	push [ebp-12]
	push [ebp-8]
	push [ebp-4]
	push [ebp-0]
	push [ebp+4]
	push ebp
	mov eax, [ebp-12]
	INVOKE printf, ADDR output_integer_msg_format, eax
	pop ebp
	pop [ebp+4]
	pop [ebp-0]
	pop [ebp-4]
	pop [ebp-8]
	pop [ebp-12]
	pop edx
	pop ecx
	pop ebx
	pop eax

;halt -1
	add ebp, 100
	mov esp, ebp
	pop ebp
	ret
main endp
end
